21
bidentate 
 O                 -2.26569186   -0.73262664   -0.34625678
 O                 -1.39926686    1.40656625   -1.36478213
 C                 -3.42112091   -0.45086479   -0.81911381
 C                 -3.64732269    0.72552540   -1.57721554
 C                 -2.58822068    1.61014745   -1.77141699
 C                 -4.56893715   -1.34998075   -0.57185065
 C                 -2.85254339    2.95134873   -2.51503197
 C                 -4.89524174   -1.72636241    0.73512872
 C                 -5.35395082   -1.79803279   -1.64078504
 C                 -6.44855981   -2.62699591   -1.40196058
 C                 -5.99797165   -2.54684661    0.96995634
 C                 -6.77252020   -3.00063818   -0.09723247
 H                 -4.64572024    0.94917755   -1.96516813
 F                 -3.95311590    2.94844968   -3.33601833
 F                 -3.05759122    4.01325748   -1.67126822
 F                 -1.82655810    3.34760820   -3.33522745
 H                 -4.28115710   -1.35831781    1.57227509
 H                 -5.10414564   -1.48822795   -2.66717339
 H                 -7.06212183   -2.98045669   -2.24332896
 H                 -6.25610503   -2.83365211    1.99994855
 H                 -7.64118211   -3.64884251    0.08938264