28
DBM bidentate 3
 O                 -3.13200000    4.96420000   -2.59460000
 O                 -1.03750000    4.18120000   -3.87680000
 C                 -3.81430000    4.17130000   -3.33890000
 C                 -7.33840000    5.18660000   -2.53060000
 C                 -8.00660000    3.97490000   -2.66050000
 C                 -5.96690000    5.25230000   -2.74120000
 C                 -5.26530000    4.10180000   -3.09610000
 C                 -5.93200000    2.88390000   -3.21520000
 C                 -7.30230000    2.82440000   -2.99700000
 H                 -5.43690000    6.20390000   -2.62320000
 H                 -7.89230000    6.08900000   -2.25600000
 H                 -9.08720000    3.92490000   -2.49300000
 H                 -7.82840000    1.86930000   -3.08870000
 H                 -5.38520000    1.96830000   -3.46220000
 C                 -3.20990000    3.40100000   -4.34210000
 C                 -1.82380000    3.42370000   -4.54860000
 C                 -1.20920000    2.55450000   -5.56950000
 C                 -0.19360000    3.04690000   -6.38490000
 C                  0.36490000    2.23040000   -7.36010000
 C                 -0.08060000    0.92270000   -7.51290000
 C                 -1.08450000    0.42830000   -6.68790000
 C                 -1.65270000    1.24210000   -5.71600000
 H                  0.16270000    4.07410000   -6.25670000
 H                  1.15770000    2.61640000   -8.00740000
 H                  0.36030000    0.28060000   -8.28220000
 H                 -1.42940000   -0.60370000   -6.80520000
 H                 -2.43610000    0.84220000   -5.06400000
 H                 -3.83400000    2.79720000   -5.00190000
