5
titulo - X1 -> X2 define a direcao
 O                  0.68607681    0.58113836   -1.18263070
 H                  1.62707680    0.58113836   -1.18263070
 H                  0.43027681    1.48723840   -1.18263070
 X1                  0.92116818    0.87923365   -1.19560292
 X2                  0.13518774   -0.11738754   -1.15223306
