6
t
H    0.0000000000000000    0.0000000000000000    1.0000000000000000  
H    0.9999999993602467    0.0000000000000000    0.0000000000000000  
H    0.0000000000000000    0.9999999993602467    0.0000000000000000  
H    0.0000000000000000   -0.9999999993602467    0.0000000000000000  
H   -0.9999999993602467    0.0000000000000000    0.0000000000000000  
H   -0.0000000000000000    0.0000000000000000   -1.0000000000000000  
