35
monodentate
 O                  2.67112897    3.88826381    0.00000000
 C                  0.51602897    2.23056381    0.00000000
 P                  2.28762897    2.23056381    0.00000000
 C                  2.81192897    1.43526381    1.47840000
 C                  2.33152897    1.89806381    2.71790000
 C                  3.67282897    0.32276381    1.46050000
 C                  4.07852897   -0.29313619    2.65570000
 C                  3.60902897    0.18856381    3.88770000
 C                  2.72672897    1.27976381    3.91610000
 C                  3.24702897    0.09026381   -3.94050000
 C                  2.66962897   -0.61563619   -2.87290000
 C                  2.39972897    0.03846381   -1.65910000
 C                  2.71372897    1.40146381   -1.49190000
 C                  3.26322897    2.10466381   -2.57910000
 C                  3.53912897    1.45546381   -3.79360000
 C                 -0.18287103    3.28396381   -0.62020000
 C                 -1.58697103    3.27906381   -0.66300000
 C                 -2.30397103    2.21106381   -0.10030000
 C                 -1.61297103    1.14456381    0.49700000
 C                 -0.20887103    1.15076381    0.53920000
 H                  1.66622897    2.71106381    2.75450000
 H                  2.36042897    1.63236381    4.83540000
 H                  3.90842897   -0.27193619    4.78340000
 H                  4.72962897   -1.11743619    2.62680000
 H                  4.01832897   -0.06543619    0.55170000
 H                  0.33852897    4.08516381   -1.05800000
 H                 -2.10067103    4.07306381   -1.12130000
 H                 -3.35427103    2.20556381   -0.13420000
 H                 -2.14667103    0.33826381    0.90880000
 H                  0.29232897    0.33886381    0.98010000
 H                  1.95732897   -0.50493619   -0.87580000
 H                  2.43582897   -1.63433619   -2.98280000
 H                  3.45012897   -0.39833619   -4.84820000
 H                  3.95912897    1.99316381   -4.59310000
 H                  3.46962897    3.12506381   -2.49620000
