18
TTA bidentate 3
 O                 -0.54356437    0.87445743   -4.10773064
 O                 -2.75093768   -0.00250772   -3.21356838
 C                 -3.23419383    0.04561629   -4.39694006
 C                 -1.12152070    0.87821617   -5.24716720
 C                 -2.43666508    0.50914044   -5.48614275
 C                 -4.60191345   -0.39011191   -4.64501007
 C                 -0.24967476    1.32360918   -6.45856731
 S                 -5.45052220   -1.43377604   -3.63954021
 C                 -5.37599268   -0.01915458   -5.73901013
 C                 -6.66450651   -0.62109552   -5.69919799
 C                 -6.80847406   -1.42748773   -4.58370677
 H                 -5.04979745    0.65441469   -6.53503420
 H                 -7.42749948   -0.46093250   -6.46284054
 H                 -2.85169327    0.54844872   -6.49754590
 H                 -7.70325177   -2.00174274   -4.34503714
 F                 -0.90454324    2.08532193   -7.39290996
 F                  0.27737924    0.27855044   -7.17723380
 F                  0.84547986    2.07856074   -6.11669303
